blazegraph/test/dss/EPRI/DPV/J1/Services.dss
New	Line.B13552-1-A_Cust4	phases=1	bus1=X_B13552-A.1	bus2=X_B13552_Cust4-A.1	length=0.1	linecode=1/0A	units=kft
New	Line.B13552-1-A_Cust3	phases=1	bus1=X_B13552-A.1	bus2=X_B13552_Cust3-A.1	length=0.1	linecode=1/0A	units=kft
New	Line.B13552-1-A_Cust2	phases=1	bus1=X_B13552-A.1	bus2=X_B13552_Cust2-A.1	length=0.1	linecode=1/0A	units=kft
New	Line.B13552-1-A_Cust1	phases=1	bus1=X_B13552-A.1	bus2=X_B13552_Cust1-A.1	length=0.1	linecode=1/0A	units=kft
New	Line.B34986-1-C_Cust1	phases=1	bus1=X_B34986-C.3	bus2=X_B34986_Cust1-C.3	length=0.1	linecode=1/0A	units=kft
New	Line.B45835-1-B_Cust2	phases=1	bus1=X_B45835-B.2	bus2=X_B45835_Cust2-B.2	length=0.1	linecode=1/0A	units=kft
New	Line.B45835-1-B_Cust1	phases=1	bus1=X_B45835-B.2	bus2=X_B45835_Cust1-B.2	length=0.1	linecode=1/0A	units=kft
New	Line.B50640-1-A_Cust1	phases=1	bus1=X_B50640-A.1	bus2=X_B50640_Cust1-A.1	length=0.1	linecode=1/0A	units=kft
New	Line.B4805-1-C_Cust6	phases=1	bus1=X_B4805-C.3	bus2=X_B4805_Cust6-C.3	length=0.1	linecode=1/0A	units=kft
New	Line.B4805-1-C_Cust5	phases=1	bus1=X_B4805-C.3	bus2=X_B4805_Cust5-C.3	length=0.1	linecode=1/0A	units=kft
New	Line.B4805-1-C_Cust4	phases=1	bus1=X_B4805-C.3	bus2=X_B4805_Cust4-C.3	length=0.1	linecode=1/0A	units=kft
New	Line.B4805-1-C_Cust3	phases=1	bus1=X_B4805-C.3	bus2=X_B4805_Cust3-C.3	length=0.1	linecode=1/0A	units=kft
New	Line.B4805-1-C_Cust2	phases=1	bus1=X_B4805-C.3	bus2=X_B4805_Cust2-C.3	length=0.1	linecode=1/0A	units=kft
New	Line.B4805-1-C_Cust1	phases=1	bus1=X_B4805-C.3	bus2=X_B4805_Cust1-C.3	length=0.1	linecode=1/0A	units=kft
New	Line.B4710-1-A_Cust1	phases=1	bus1=X_B4710-A.1	bus2=X_B4710_Cust1-A.1	length=0.1	linecode=1/0A	units=kft
New	Line.B4859-1-A_Cust3	phases=1	bus1=X_B4859-A.1	bus2=X_B4859_Cust3-A.1	length=0.1	linecode=1/0A	units=kft
New	Line.B4859-1-A_Cust2	phases=1	bus1=X_B4859-A.1	bus2=X_B4859_Cust2-A.1	length=0.1	linecode=1/0A	units=kft
New	Line.B4859-1-A_Cust1	phases=1	bus1=X_B4859-A.1	bus2=X_B4859_Cust1-A.1	length=0.1	linecode=1/0A	units=kft
New	Line.B4859-1-B_Cust3	phases=1	bus1=X_B4859-B.2	bus2=X_B4859_Cust3-B.2	length=0.1	linecode=1/0A	units=kft
New	Line.B4859-1-B_Cust2	phases=1	bus1=X_B4859-B.2	bus2=X_B4859_Cust2-B.2	length=0.1	linecode=1/0A	units=kft
New	Line.B4859-1-B_Cust1	phases=1	bus1=X_B4859-B.2	bus2=X_B4859_Cust1-B.2	length=0.1	linecode=1/0A	units=kft
New	Line.B4859-1-C_Cust3	phases=1	bus1=X_B4859-C.3	bus2=X_B4859_Cust3-C.3	length=0.1	linecode=1/0A	units=kft
New	Line.B4859-1-C_Cust2	phases=1	bus1=X_B4859-C.3	bus2=X_B4859_Cust2-C.3	length=0.1	linecode=1/0A	units=kft
New	Line.B4859-1-C_Cust1	phases=1	bus1=X_B4859-C.3	bus2=X_B4859_Cust1-C.3	length=0.1	linecode=1/0A	units=kft
New	Line.B41240-1-A_Cust1	phases=1	bus1=X_B41240-A.1	bus2=X_B41240_Cust1-A.1	length=0.1	linecode=1/0A	units=kft
New	Line.B55546-1-C_Cust1	phases=1	bus1=X_B55546-C.3	bus2=X_B55546_Cust1-C.3	length=0.1	linecode=1/0A	units=kft
New	Line.B18979-1-C_Cust2	phases=1	bus1=X_B18979-C.3	bus2=X_B18979_Cust2-C.3	length=0.1	linecode=1/0A	units=kft
New	Line.B18979-1-C_Cust1	phases=1	bus1=X_B18979-C.3	bus2=X_B18979_Cust1-C.3	length=0.1	linecode=1/0A	units=kft
New	Line.B4982-1-B_Cust2	phases=1	bus1=X_B4982-B.2	bus2=X_B4982_Cust2-B.2	length=0.1	linecode=1/0A	units=kft
New	Line.B4982-1-B_Cust1	phases=1	bus1=X_B4982-B.2	bus2=X_B4982_Cust1-B.2	length=0.1	linecode=1/0A	units=kft
New	Line.B18902-1-A_Cust2	phases=1	bus1=X_B18902-A.1	bus2=X_B18902_Cust2-A.1	length=0.1	linecode=1/0A	units=kft
New	Line.B18902-1-A_Cust1	phases=1	bus1=X_B18902-A.1	bus2=X_B18902_Cust1-A.1	length=0.1	linecode=1/0A	units=kft
New	Line.B2532-1-A_Cust1	phases=1	bus1=X_B2532-A.1	bus2=X_B2532_Cust1-A.1	length=0.1	linecode=1/0A	units=kft
New	Line.B47668-1-A_Cust1	phases=1	bus1=X_B47668-A.1	bus2=X_B47668_Cust1-A.1	length=0.1	linecode=1/0A	units=kft
New	Line.B47668-1-B_Cust1	phases=1	bus1=X_B47668-B.2	bus2=X_B47668_Cust1-B.2	length=0.1	linecode=1/0A	units=kft
New	Line.B47668-1-C_Cust1	phases=1	bus1=X_B47668-C.3	bus2=X_B47668_Cust1-C.3	length=0.1	linecode=1/0A	units=kft
New	Line.B4891-1-C_Cust3	phases=1	bus1=X_B4891-C.3	bus2=X_B4891_Cust3-C.3	length=0.1	linecode=1/0A	units=kft
New	Line.B4891-1-C_Cust2	phases=1	bus1=X_B4891-C.3	bus2=X_B4891_Cust2-C.3	length=0.1	linecode=1/0A	units=kft
New	Line.B4891-1-C_Cust1	phases=1	bus1=X_B4891-C.3	bus2=X_B4891_Cust1-C.3	length=0.1	linecode=1/0A	units=kft
New	Line.B18858-1-B_Cust1	phases=1	bus1=X_B18858-B.2	bus2=X_B18858_Cust1-B.2	length=0.1	linecode=1/0A	units=kft
New	Line.5851228580-1-C_Cust1	phases=1	bus1=X_5851228580-C.3	bus2=X_5851228580_Cust1-C.3	length=0.1	linecode=1/0A	units=kft
New	Line.B18971-1-C_Cust3	phases=1	bus1=X_B18971-C.3	bus2=X_B18971_Cust3-C.3	length=0.1	linecode=1/0A	units=kft
New	Line.B18971-1-C_Cust2	phases=1	bus1=X_B18971-C.3	bus2=X_B18971_Cust2-C.3	length=0.1	linecode=1/0A	units=kft
New	Line.B18971-1-C_Cust1	phases=1	bus1=X_B18971-C.3	bus2=X_B18971_Cust1-C.3	length=0.1	linecode=1/0A	units=kft
New	Line.B8019-1-C_Cust6	phases=1	bus1=X_B8019-C.3	bus2=X_B8019_Cust6-C.3	length=0.1	linecode=1/0A	units=kft
New	Line.B8019-1-C_Cust5	phases=1	bus1=X_B8019-C.3	bus2=X_B8019_Cust5-C.3	length=0.1	linecode=1/0A	units=kft
New	Line.B8019-1-C_Cust4	phases=1	bus1=X_B8019-C.3	bus2=X_B8019_Cust4-C.3	length=0.1	linecode=1/0A	units=kft
New	Line.B8019-1-C_Cust3	phases=1	bus1=X_B8019-C.3	bus2=X_B8019_Cust3-C.3	length=0.1	linecode=1/0A	units=kft
New	Line.B8019-1-C_Cust2	phases=1	bus1=X_B8019-C.3	bus2=X_B8019_Cust2-C.3	length=0.1	linecode=1/0A	units=kft
New	Line.B8019-1-C_Cust1	phases=1	bus1=X_B8019-C.3	bus2=X_B8019_Cust1-C.3	length=0.1	linecode=1/0A	units=kft
New	Line.B60843-1-C_Cust1	phases=1	bus1=X_B60843-C.3	bus2=X_B60843_Cust1-C.3	length=0.1	linecode=1/0A	units=kft
New	Line.B44432-1-C_Cust1	phases=1	bus1=X_B44432-C.3	bus2=X_B44432_Cust1-C.3	length=0.1	linecode=1/0A	units=kft
New	Line.B52584-1-B_Cust1	phases=1	bus1=X_B52584-B.2	bus2=X_B52584_Cust1-B.2	length=0.1	linecode=1/0A	units=kft
New	Line.B41463-1-C_Cust1	phases=1	bus1=X_B41463-C.3	bus2=X_B41463_Cust1-C.3	length=0.1	linecode=1/0A	units=kft
New	Line.5905728658-1-B_Cust1	phases=1	bus1=X_5905728658-B.2	bus2=X_5905728658_Cust1-B.2	length=0.1	linecode=1/0A	units=kft
New	Line.B15821-1-C_Cust1	phases=1	bus1=X_B15821-C.3	bus2=X_B15821_Cust1-C.3	length=0.1	linecode=1/0A	units=kft
New	Line.B18850-1-B_Cust2	phases=1	bus1=X_B18850-B.2	bus2=X_B18850_Cust2-B.2	length=0.1	linecode=1/0A	units=kft
New	Line.B18850-1-B_Cust1	phases=1	bus1=X_B18850-B.2	bus2=X_B18850_Cust1-B.2	length=0.1	linecode=1/0A	units=kft
New	Line.B18866-1-A_Cust4	phases=1	bus1=X_B18866-A.1	bus2=X_B18866_Cust4-A.1	length=0.1	linecode=1/0A	units=kft
New	Line.B18866-1-A_Cust3	phases=1	bus1=X_B18866-A.1	bus2=X_B18866_Cust3-A.1	length=0.1	linecode=1/0A	units=kft
New	Line.B18866-1-A_Cust2	phases=1	bus1=X_B18866-A.1	bus2=X_B18866_Cust2-A.1	length=0.1	linecode=1/0A	units=kft
New	Line.B18866-1-A_Cust1	phases=1	bus1=X_B18866-A.1	bus2=X_B18866_Cust1-A.1	length=0.1	linecode=1/0A	units=kft
New	Line.6060229368-1-B_Cust1	phases=1	bus1=X_6060229368-B.2	bus2=X_6060229368_Cust1-B.2	length=0.1	linecode=1/0A	units=kft
New	Line.B52162-1-A_Cust1	phases=1	bus1=X_B52162-A.1	bus2=X_B52162_Cust1-A.1	length=0.1	linecode=1/0A	units=kft
New	Line.G43337-1-A_Cust1	phases=1	bus1=X_G43337-A.1	bus2=X_G43337_Cust1-A.1	length=0.1	linecode=1/0A	units=kft
New	Line.B18977-1-C_Cust3	phases=1	bus1=X_B18977-C.3	bus2=X_B18977_Cust3-C.3	length=0.1	linecode=1/0A	units=kft
New	Line.B18977-1-C_Cust2	phases=1	bus1=X_B18977-C.3	bus2=X_B18977_Cust2-C.3	length=0.1	linecode=1/0A	units=kft
New	Line.B18977-1-C_Cust1	phases=1	bus1=X_B18977-C.3	bus2=X_B18977_Cust1-C.3	length=0.1	linecode=1/0A	units=kft
New	Line.B18839-1-B_Cust1	phases=1	bus1=X_B18839-B.2	bus2=X_B18839_Cust1-B.2	length=0.1	linecode=1/0A	units=kft
New	Line.B46251-1-C_Cust1	phases=1	bus1=X_B46251-C.3	bus2=X_B46251_Cust1-C.3	length=0.1	linecode=1/0A	units=kft
New	Line.B18925-1-B_Cust1	phases=1	bus1=X_B18925-B.2	bus2=X_B18925_Cust1-B.2	length=0.1	linecode=1/0A	units=kft
New	Line.B22569-1-A_Cust1	phases=1	bus1=X_B22569-A.1	bus2=X_B22569_Cust1-A.1	length=0.1	linecode=1/0A	units=kft
New	Line.B23880-1-C_Cust1	phases=1	bus1=X_B23880-C.3	bus2=X_B23880_Cust1-C.3	length=0.1	linecode=1/0A	units=kft
New	Line.B3066-1-C_Cust1	phases=1	bus1=X_B3066-C.3	bus2=X_B3066_Cust1-C.3	length=0.1	linecode=1/0A	units=kft
New	Line.B63365-1-B_Cust1	phases=1	bus1=X_B63365-B.2	bus2=X_B63365_Cust1-B.2	length=0.1	linecode=1/0A	units=kft
New	Line.B26203-1-C_Cust1	phases=1	bus1=X_B26203-C.3	bus2=X_B26203_Cust1-C.3	length=0.05	linecode=1/0A	units=kft
New	Line.B23869-1-C_Cust1	phases=1	bus1=X_B23869-C.3	bus2=X_B23869_Cust1-C.3	length=0.1	linecode=1/0A	units=kft
New	Line.B56446-1-A_Cust1	phases=1	bus1=X_B56446-A.1	bus2=X_B56446_Cust1-A.1	length=0.1	linecode=1/0A	units=kft
New	Line.B18986-1-C_Cust1	phases=1	bus1=X_B18986-C.3	bus2=X_B18986_Cust1-C.3	length=0.1	linecode=1/0A	units=kft
New	Line.B13651-1-A_Cust16	phases=1	bus1=X_B13651-A.1	bus2=X_B13651_Cust16-A.1	length=0.1	linecode=1/0A	units=kft
New	Line.B13651-1-A_Cust15	phases=1	bus1=X_B13651-A.1	bus2=X_B13651_Cust15-A.1	length=0.1	linecode=1/0A	units=kft
New	Line.B13651-1-A_Cust14	phases=1	bus1=X_B13651-A.1	bus2=X_B13651_Cust14-A.1	length=0.1	linecode=1/0A	units=kft
New	Line.B13651-1-A_Cust13	phases=1	bus1=X_B13651-A.1	bus2=X_B13651_Cust13-A.1	length=0.1	linecode=1/0A	units=kft
New	Line.B13651-1-A_Cust12	phases=1	bus1=X_B13651-A.1	bus2=X_B13651_Cust12-A.1	length=0.1	linecode=1/0A	units=kft
New	Line.B13651-1-A_Cust11	phases=1	bus1=X_B13651-A.1	bus2=X_B13651_Cust11-A.1	length=0.1	linecode=1/0A	units=kft
New	Line.B13651-1-A_Cust10	phases=1	bus1=X_B13651-A.1	bus2=X_B13651_Cust10-A.1	length=0.1	linecode=1/0A	units=kft
New	Line.B13651-1-A_Cust9	phases=1	bus1=X_B13651-A.1	bus2=X_B13651_Cust9-A.1	length=0.1	linecode=1/0A	units=kft
New	Line.B13651-1-A_Cust8	phases=1	bus1=X_B13651-A.1	bus2=X_B13651_Cust8-A.1	length=0.1	linecode=1/0A	units=kft
New	Line.B13651-1-A_Cust7	phases=1	bus1=X_B13651-A.1	bus2=X_B13651_Cust7-A.1	length=0.1	linecode=1/0A	units=kft
New	Line.B13651-1-A_Cust6	phases=1	bus1=X_B13651-A.1	bus2=X_B13651_Cust6-A.1	length=0.1	linecode=1/0A	units=kft
New	Line.B13651-1-A_Cust5	phases=1	bus1=X_B13651-A.1	bus2=X_B13651_Cust5-A.1	length=0.1	linecode=1/0A	units=kft
New	Line.B13651-1-A_Cust4	phases=1	bus1=X_B13651-A.1	bus2=X_B13651_Cust4-A.1	length=0.1	linecode=1/0A	units=kft
New	Line.B13651-1-A_Cust3	phases=1	bus1=X_B13651-A.1	bus2=X_B13651_Cust3-A.1	length=0.1	linecode=1/0A	units=kft
New	Line.B13651-1-A_Cust2	phases=1	bus1=X_B13651-A.1	bus2=X_B13651_Cust2-A.1	length=0.1	linecode=1/0A	units=kft
New	Line.B13651-1-A_Cust1	phases=1	bus1=X_B13651-A.1	bus2=X_B13651_Cust1-A.1	length=0.1	linecode=1/0A	units=kft
New	Line.6034628876-1-C_Cust1	phases=1	bus1=X_6034628876-C.3	bus2=X_6034628876_Cust1-C.3	length=0.1	linecode=1/0A	units=kft
New	Line.B17575-1-C_Cust1	phases=1	bus1=X_B17575-C.3	bus2=X_B17575_Cust1-C.3	length=0.1	linecode=1/0A	units=kft
New	Line.B10925-1-C_Cust3	phases=1	bus1=X_B10925-C.3	bus2=X_B10925_Cust3-C.3	length=0.1	linecode=1/0A	units=kft
New	Line.B10925-1-C_Cust2	phases=1	bus1=X_B10925-C.3	bus2=X_B10925_Cust2-C.3	length=0.1	linecode=1/0A	units=kft
New	Line.B10925-1-C_Cust1	phases=1	bus1=X_B10925-C.3	bus2=X_B10925_Cust1-C.3	length=0.1	linecode=1/0A	units=kft
New	Line.B23406-1-A_Cust1	phases=1	bus1=X_B23406-A.1	bus2=X_B23406_Cust1-A.1	length=0.1	linecode=1/0A	units=kft
New	Line.B4594-1-C_Cust3	phases=1	bus1=X_B4594-C.3	bus2=X_B4594_Cust3-C.3	length=0.1	linecode=1/0A	units=kft
New	Line.B4594-1-C_Cust2	phases=1	bus1=X_B4594-C.3	bus2=X_B4594_Cust2-C.3	length=0.1	linecode=1/0A	units=kft
New	Line.B4594-1-C_Cust1	phases=1	bus1=X_B4594-C.3	bus2=X_B4594_Cust1-C.3	length=0.1	linecode=1/0A	units=kft
New	Line.6018228840-1-C_Cust1	phases=1	bus1=X_6018228840-C.3	bus2=X_6018228840_Cust1-C.3	length=0.1	linecode=1/0A	units=kft
New	Line.B5185-1-C_Cust1	phases=1	bus1=X_B5185-C.3	bus2=X_B5185_Cust1-C.3	length=0.1	linecode=1/0A	units=kft
New	Line.B48180-1-C_Cust1	phases=1	bus1=X_B48180-C.3	bus2=X_B48180_Cust1-C.3	length=0.1	linecode=1/0A	units=kft
New	Line.G35573-1-A_Cust1	phases=1	bus1=X_G35573-A.1	bus2=X_G35573_Cust1-A.1	length=0.1	linecode=1/0A	units=kft
New	Line.G35573-1-B_Cust1	phases=1	bus1=X_G35573-B.2	bus2=X_G35573_Cust1-B.2	length=0.1	linecode=1/0A	units=kft
New	Line.G35573-1-C_Cust1	phases=1	bus1=X_G35573-C.3	bus2=X_G35573_Cust1-C.3	length=0.1	linecode=1/0A	units=kft
New	Line.B59582-1-C_Cust1	phases=1	bus1=X_B59582-C.3	bus2=X_B59582_Cust1-C.3	length=0.1	linecode=1/0A	units=kft
New	Line.G33468-1-B_Cust1	phases=1	bus1=X_G33468-B.2	bus2=X_G33468_Cust1-B.2	length=0.1	linecode=1/0A	units=kft
New	Line.B4861-1-B_Cust7	phases=1	bus1=X_B4861-B.2	bus2=X_B4861_Cust7-B.2	length=0.1	linecode=1/0A	units=kft
New	Line.B4861-1-B_Cust6	phases=1	bus1=X_B4861-B.2	bus2=X_B4861_Cust6-B.2	length=0.1	linecode=1/0A	units=kft
New	Line.B4861-1-B_Cust5	phases=1	bus1=X_B4861-B.2	bus2=X_B4861_Cust5-B.2	length=0.1	linecode=1/0A	units=kft
New	Line.B4861-1-B_Cust4	phases=1	bus1=X_B4861-B.2	bus2=X_B4861_Cust4-B.2	length=0.1	linecode=1/0A	units=kft
New	Line.B4861-1-B_Cust3	phases=1	bus1=X_B4861-B.2	bus2=X_B4861_Cust3-B.2	length=0.1	linecode=1/0A	units=kft
New	Line.B4861-1-B_Cust2	phases=1	bus1=X_B4861-B.2	bus2=X_B4861_Cust2-B.2	length=0.1	linecode=1/0A	units=kft
New	Line.B4861-1-B_Cust1	phases=1	bus1=X_B4861-B.2	bus2=X_B4861_Cust1-B.2	length=0.1	linecode=1/0A	units=kft
New	Line.6000828811-1-A_Cust1	phases=1	bus1=X_6000828811-A.1	bus2=X_6000828811_Cust1-A.1	length=0.1	linecode=1/0A	units=kft
New	Line.B18995-1-C_Cust1	phases=1	bus1=X_B18995-C.3	bus2=X_B18995_Cust1-C.3	length=0.1	linecode=1/0A	units=kft
New	Line.G42394-1-C_Cust1	phases=1	bus1=X_G42394-C.3	bus2=X_G42394_Cust1-C.3	length=0.1	linecode=1/0A	units=kft
New	Line.B36183-1-C_Cust1	phases=1	bus1=X_B36183-C.3	bus2=X_B36183_Cust1-C.3	length=0.1	linecode=1/0A	units=kft
New	Line.B62294-1-C_Cust2	phases=1	bus1=X_B62294-C.3	bus2=X_B62294_Cust2-C.3	length=0.1	linecode=1/0A	units=kft
New	Line.B62294-1-C_Cust1	phases=1	bus1=X_B62294-C.3	bus2=X_B62294_Cust1-C.3	length=0.1	linecode=1/0A	units=kft
New	Line.G35320-1-B_Cust1	phases=1	bus1=X_G35320-B.2	bus2=X_G35320_Cust1-B.2	length=0.1	linecode=1/0A	units=kft
New	Line.G40623-1-A_Cust2	phases=1	bus1=X_G40623-A.1	bus2=X_G40623_Cust2-A.1	length=0.1	linecode=1/0A	units=kft
New	Line.G40623-1-A_Cust1	phases=1	bus1=X_G40623-A.1	bus2=X_G40623_Cust1-A.1	length=0.1	linecode=1/0A	units=kft
New	Line.B34541-1-A_Cust1	phases=1	bus1=X_B34541-A.1	bus2=X_B34541_Cust1-A.1	length=0.1	linecode=1/0A	units=kft
New	Line.B19071-1-C_Cust1	phases=1	bus1=X_B19071-C.3	bus2=X_B19071_Cust1-C.3	length=0.1	linecode=1/0A	units=kft
New	Line.B39820-1-C_Cust1	phases=1	bus1=X_B39820-C.3	bus2=X_B39820_Cust1-C.3	length=0.1	linecode=1/0A	units=kft
New	Line.5857829226-1-C_Cust1	phases=1	bus1=X_5857829226-C.3	bus2=X_5857829226_Cust1-C.3	length=0.1	linecode=1/0A	units=kft
New	Line.5920428274-1-C_Cust1	phases=1	bus1=X_5920428274-C.3	bus2=X_5920428274_Cust1-C.3	length=0.1	linecode=1/0A	units=kft
New	Line.B24281-1-C_Cust2	phases=1	bus1=X_B24281-C.3	bus2=X_B24281_Cust2-C.3	length=0.1	linecode=1/0A	units=kft
New	Line.B24281-1-C_Cust1	phases=1	bus1=X_B24281-C.3	bus2=X_B24281_Cust1-C.3	length=0.1	linecode=1/0A	units=kft
New	Line.B18912-1-B_Cust1	phases=1	bus1=X_B18912-B.2	bus2=X_B18912_Cust1-B.2	length=0.1	linecode=1/0A	units=kft
New	Line.B60940-1-C_Cust3	phases=1	bus1=X_B60940-C.3	bus2=X_B60940_Cust3-C.3	length=0.1	linecode=1/0A	units=kft
New	Line.B60940-1-C_Cust2	phases=1	bus1=X_B60940-C.3	bus2=X_B60940_Cust2-C.3	length=0.1	linecode=1/0A	units=kft
New	Line.B60940-1-C_Cust1	phases=1	bus1=X_B60940-C.3	bus2=X_B60940_Cust1-C.3	length=0.1	linecode=1/0A	units=kft
New	Line.B4579-1-A_Cust2	phases=1	bus1=X_B4579-A.1	bus2=X_B4579_Cust2-A.1	length=0.1	linecode=1/0A	units=kft
New	Line.B4579-1-A_Cust1	phases=1	bus1=X_B4579-A.1	bus2=X_B4579_Cust1-A.1	length=0.1	linecode=1/0A	units=kft
New	Line.B4579-1-C_Cust2	phases=1	bus1=X_B4579-C.3	bus2=X_B4579_Cust2-C.3	length=0.1	linecode=1/0A	units=kft
New	Line.B4579-1-C_Cust1	phases=1	bus1=X_B4579-C.3	bus2=X_B4579_Cust1-C.3	length=0.1	linecode=1/0A	units=kft
New	Line.B4994-1-A_Cust1	phases=1	bus1=X_B4994-A.1	bus2=X_B4994_Cust1-A.1	length=0.1	linecode=1/0A	units=kft
New	Line.B61632-1-A_Cust1	phases=1	bus1=X_B61632-A.1	bus2=X_B61632_Cust1-A.1	length=0.1	linecode=1/0A	units=kft
New	Line.B61632-1-B_Cust1	phases=1	bus1=X_B61632-B.2	bus2=X_B61632_Cust1-B.2	length=0.1	linecode=1/0A	units=kft
New	Line.B61632-1-C_Cust1	phases=1	bus1=X_B61632-C.3	bus2=X_B61632_Cust1-C.3	length=0.1	linecode=1/0A	units=kft
New	Line.B18886-1-B_Cust1	phases=1	bus1=X_B18886-B.2	bus2=X_B18886_Cust1-B.2	length=0.1	linecode=1/0A	units=kft
New	Line.5979429639-1-B_Cust1	phases=1	bus1=X_5979429639-B.2	bus2=X_5979429639_Cust1-B.2	length=0.1	linecode=1/0A	units=kft
New	Line.B18941-1-A_Cust3	phases=1	bus1=X_B18941-A.1	bus2=X_B18941_Cust3-A.1	length=0.1	linecode=1/0A	units=kft
New	Line.B18941-1-A_Cust2	phases=1	bus1=X_B18941-A.1	bus2=X_B18941_Cust2-A.1	length=0.1	linecode=1/0A	units=kft
New	Line.B18941-1-A_Cust1	phases=1	bus1=X_B18941-A.1	bus2=X_B18941_Cust1-A.1	length=0.1	linecode=1/0A	units=kft
New	Line.G40138-1-C_Cust1	phases=1	bus1=X_G40138-C.3	bus2=X_G40138_Cust1-C.3	length=0.1	linecode=1/0A	units=kft
New	Line.B18855-1-B_Cust2	phases=1	bus1=X_B18855-B.2	bus2=X_B18855_Cust2-B.2	length=0.1	linecode=1/0A	units=kft
New	Line.B18855-1-B_Cust1	phases=1	bus1=X_B18855-B.2	bus2=X_B18855_Cust1-B.2	length=0.1	linecode=1/0A	units=kft
New	Line.B4673-1-A_Cust1	phases=1	bus1=X_B4673-A.1	bus2=X_B4673_Cust1-A.1	length=0.1	linecode=1/0A	units=kft
New	Line.B19064-1-C_Cust1	phases=1	bus1=X_B19064-C.3	bus2=X_B19064_Cust1-C.3	length=0.1	linecode=1/0A	units=kft
New	Line.B45445-1-C_Cust2	phases=1	bus1=X_B45445-C.3	bus2=X_B45445_Cust2-C.3	length=0.1	linecode=1/0A	units=kft
New	Line.B45445-1-C_Cust1	phases=1	bus1=X_B45445-C.3	bus2=X_B45445_Cust1-C.3	length=0.1	linecode=1/0A	units=kft
New	Line.B57500-1-B_Cust1	phases=1	bus1=X_B57500-B.2	bus2=X_B57500_Cust1-B.2	length=0.1	linecode=1/0A	units=kft
New	Line.B14324-1-A_Cust1	phases=1	bus1=X_B14324-A.1	bus2=X_B14324_Cust1-A.1	length=0.1	linecode=1/0A	units=kft
New	Line.B60757-1-C_Cust1	phases=1	bus1=X_B60757-C.3	bus2=X_B60757_Cust1-C.3	length=0.1	linecode=1/0A	units=kft
New	Line.G34723-1-C_Cust1	phases=1	bus1=X_G34723-C.3	bus2=X_G34723_Cust1-C.3	length=0.1	linecode=1/0A	units=kft
New	Line.B22571-1-C_Cust3	phases=1	bus1=X_B22571-C.3	bus2=X_B22571_Cust3-C.3	length=0.1	linecode=1/0A	units=kft
New	Line.B22571-1-C_Cust2	phases=1	bus1=X_B22571-C.3	bus2=X_B22571_Cust2-C.3	length=0.1	linecode=1/0A	units=kft
New	Line.B22571-1-C_Cust1	phases=1	bus1=X_B22571-C.3	bus2=X_B22571_Cust1-C.3	length=0.1	linecode=1/0A	units=kft
New	Line.B13555-1-A_Cust2	phases=1	bus1=X_B13555-A.1	bus2=X_B13555_Cust2-A.1	length=0.1	linecode=1/0A	units=kft
New	Line.B13555-1-A_Cust1	phases=1	bus1=X_B13555-A.1	bus2=X_B13555_Cust1-A.1	length=0.1	linecode=1/0A	units=kft
New	Line.B23889-1-C_Cust1	phases=1	bus1=X_B23889-C.3	bus2=X_B23889_Cust1-C.3	length=0.1	linecode=1/0A	units=kft
New	Line.B43440-1-B_Cust3	phases=1	bus1=X_B43440-B.2	bus2=X_B43440_Cust3-B.2	length=0.1	linecode=1/0A	units=kft
New	Line.B43440-1-B_Cust2	phases=1	bus1=X_B43440-B.2	bus2=X_B43440_Cust2-B.2	length=0.1	linecode=1/0A	units=kft
New	Line.B43440-1-B_Cust1	phases=1	bus1=X_B43440-B.2	bus2=X_B43440_Cust1-B.2	length=0.1	linecode=1/0A	units=kft
New	Line.5904428572-1-B_Cust2	phases=1	bus1=X_5904428572-B.2	bus2=X_5904428572_Cust2-B.2	length=0.1	linecode=1/0A	units=kft
New	Line.5904428572-1-B_Cust1	phases=1	bus1=X_5904428572-B.2	bus2=X_5904428572_Cust1-B.2	length=0.1	linecode=1/0A	units=kft
New	Line.B41085-1-B_Cust1	phases=1	bus1=X_B41085-B.2	bus2=X_B41085_Cust1-B.2	length=0.1	linecode=1/0A	units=kft
New	Line.B41085-1-C_Cust1	phases=1	bus1=X_B41085-C.3	bus2=X_B41085_Cust1-C.3	length=0.1	linecode=1/0A	units=kft
New	Line.B19021-1-A_Cust1	phases=1	bus1=X_B19021-A.1	bus2=X_B19021_Cust1-A.1	length=0.1	linecode=1/0A	units=kft
New	Line.6053129341-1-B_Cust1	phases=1	bus1=X_6053129341-B.2	bus2=X_6053129341_Cust1-B.2	length=0.1	linecode=1/0A	units=kft
New	Line.6059129162-1-C_Cust1	phases=1	bus1=X_6059129162-C.3	bus2=X_6059129162_Cust1-C.3	length=0.1	linecode=1/0A	units=kft
New	Line.B60934-1-C_Cust2	phases=1	bus1=X_B60934-C.3	bus2=X_B60934_Cust2-C.3	length=0.1	linecode=1/0A	units=kft
New	Line.B60934-1-C_Cust1	phases=1	bus1=X_B60934-C.3	bus2=X_B60934_Cust1-C.3	length=0.1	linecode=1/0A	units=kft
New	Line.5993629800-1-B_Cust1	phases=1	bus1=X_5993629800-B.2	bus2=X_5993629800_Cust1-B.2	length=0.1	linecode=1/0A	units=kft
New	Line.B63785-1-C_Cust1	phases=1	bus1=X_B63785-C.3	bus2=X_B63785_Cust1-C.3	length=0.1	linecode=1/0A	units=kft
New	Line.B59172-1-B_Cust1	phases=1	bus1=X_B59172-B.2	bus2=X_B59172_Cust1-B.2	length=0.1	linecode=1/0A	units=kft
New	Line.5962929303-1-B_Cust1	phases=1	bus1=X_5962929303-B.2	bus2=X_5962929303_Cust1-B.2	length=0.1	linecode=1/0A	units=kft
New	Line.B4826-1-B_Cust1	phases=1	bus1=X_B4826-B.2	bus2=X_B4826_Cust1-B.2	length=0.1	linecode=1/0A	units=kft
New	Line.B4826-1-C_Cust1	phases=1	bus1=X_B4826-C.3	bus2=X_B4826_Cust1-C.3	length=0.1	linecode=1/0A	units=kft
New	Line.B28551-1-B_Cust1	phases=1	bus1=X_B28551-B.2	bus2=X_B28551_Cust1-B.2	length=0.1	linecode=1/0A	units=kft
New	Line.B28551-1-C_Cust1	phases=1	bus1=X_B28551-C.3	bus2=X_B28551_Cust1-C.3	length=0.1	linecode=1/0A	units=kft
New	Line.B4795-1-C_Cust4	phases=1	bus1=X_B4795-C.3	bus2=X_B4795_Cust4-C.3	length=0.1	linecode=1/0A	units=kft
New	Line.B4795-1-C_Cust3	phases=1	bus1=X_B4795-C.3	bus2=X_B4795_Cust3-C.3	length=0.1	linecode=1/0A	units=kft
New	Line.B4795-1-C_Cust2	phases=1	bus1=X_B4795-C.3	bus2=X_B4795_Cust2-C.3	length=0.1	linecode=1/0A	units=kft
New	Line.B4795-1-C_Cust1	phases=1	bus1=X_B4795-C.3	bus2=X_B4795_Cust1-C.3	length=0.1	linecode=1/0A	units=kft
New	Line.B5186-1-B_Cust1	phases=1	bus1=X_B5186-B.2	bus2=X_B5186_Cust1-B.2	length=0.1	linecode=1/0A	units=kft
New	Line.B5193-1-B_Cust2	phases=1	bus1=X_B5193-B.2	bus2=X_B5193_Cust2-B.2	length=0.1	linecode=1/0A	units=kft
New	Line.B5193-1-B_Cust1	phases=1	bus1=X_B5193-B.2	bus2=X_B5193_Cust1-B.2	length=0.1	linecode=1/0A	units=kft
New	Line.B41861-1-B_Cust2	phases=1	bus1=X_B41861-B.2	bus2=X_B41861_Cust2-B.2	length=0.1	linecode=1/0A	units=kft
New	Line.B41861-1-B_Cust1	phases=1	bus1=X_B41861-B.2	bus2=X_B41861_Cust1-B.2	length=0.05	linecode=1/0A	units=kft
New	Line.B56325-1-A_Cust1	phases=1	bus1=X_B56325-A.1	bus2=X_B56325_Cust1-A.1	length=0.1	linecode=3/0A	units=kft
New	Line.B56325-1-B_Cust1	phases=1	bus1=X_B56325-B.2	bus2=X_B56325_Cust1-B.2	length=0.1	linecode=3/0A	units=kft
...
